/*--------------------------------*- C++ -*----------------------------------*\
| =========                 |                                                 |
| \\      /  F ield         | OpenFOAM: The Open Source CFD Toolbox           |
|  \\    /   O peration     | Version:  v2212                                 |
|   \\  /    A nd           | Website:  www.openfoam.com                      |
|    \\/     M anipulation  |                                                 |
\*---------------------------------------------------------------------------*/
FoamFile
{
    version     2.0;
    format      ascii;
    class       dictionary;
    object      fvOptions;
}
// * * * * * * * * * * * * * * * * * * * * * * * * * * * * * * * * * * * * * //


atmPlantCanopyUSource1
{
    type            atmPlantCanopyUSource;
    selectionMode   all;
}

atmPlantCanopyTurbSource1
{
    type            atmPlantCanopyTurbSource;
    selectionMode   all;
    rho             rho;
}

atmAmbientTurbSource1
{
    type            atmAmbientTurbSource;
    selectionMode   all;
    kAmb            1.0e-04;
    epsilonAmb      7.208e-08;
}


atmBuoyancyTurbSource1
{
    type            atmBuoyancyTurbSource;
    selectionMode   all;
    rho             rho;
    Lmax            41.0;
    beta            3.3e-03;
}
// ************************************************************************* //
