
/*--------------------------------*- C++ -*----------------------------------*\
| =========                 |                                                 |
| \\      /  F ield         | OpenFOAM: The Open Source CFD Toolbox           |
|  \\    /   O peration     | Version:  v2212                                 |
|   \\  /    A nd           | Website:  www.openfoam.com                      |
|    \\/     M anipulation  |                                                 |
\*---------------------------------------------------------------------------*/
FoamFile
{
    version     2.0;
    format      ascii;
    class       volScalarField;
    object      Moisture;
}
// * * * * * * * * * * * * * * * * * * * * * * * * * * * * * * * * * * * * * //

dimensions      [0 0 0 0 0 0 0];

internalField  uniform  0;

boundaryField
{
    ground
    {
        type            fixedValue;
        value           $internalField;
    }

    top
    {
        type            zeroGradient;
    }

    inlet
    {
        type            inletOutlet;
        inletValue      uniform 0;
    }

    outlet
    {
        type            inletOutlet;
        inletValue      uniform 0;
    }
    
    sides
    {
        type            empty;
    }    
}


// ************************************************************************* //
